@<TRIPOS>MOLECULE
*****
 17 16 0 0 0
SMALL
GASTEIGER

@<TRIPOS>ATOM
      1 SI          0.0000    0.0000   -0.0000 Si      1  LIG1        0.0000
      2 C           1.3456    0.5852   -1.1677 C.3     1  LIG1        0.0000
      3 C          -1.3921   -0.7752   -0.9888 C.3     1  LIG1        0.0000
      4 C          -0.6620    1.4601    0.9728 C.3     1  LIG1        0.0000
      5 C           0.7085   -1.2702    1.1837 C.3     1  LIG1        0.0000
      6 H           0.9531    1.3282   -1.8682 H       1  LIG1        0.0000
      7 H           1.7465   -0.2524   -1.7461 H       1  LIG1        0.0000
      8 H           2.1691    1.0417   -0.6105 H       1  LIG1        0.0000
      9 H          -2.1893   -1.1241   -0.3258 H       1  LIG1        0.0000
     10 H          -1.0271   -1.6306   -1.5650 H       1  LIG1        0.0000
     11 H          -1.8205   -0.0500   -1.6871 H       1  LIG1        0.0000
     12 H           0.1352    1.9280    1.5580 H       1  LIG1        0.0000
     13 H          -1.4497    1.1405    1.6615 H       1  LIG1        0.0000
     14 H          -1.0809    2.2146    0.3003 H       1  LIG1        0.0000
     15 H           1.5237   -0.8381    1.7717 H       1  LIG1        0.0000
     16 H           1.1011   -2.1321    0.6361 H       1  LIG1        0.0000
     17 H          -0.0612   -1.6256    1.8752 H       1  LIG1        0.0000
@<TRIPOS>BOND
     1     6     2    1
     2     7     2    1
     3    11     3    1
     4    10     3    1
     5     2     8    1
     6     2     1    1
     7     3     9    1
     8     3     1    1
     9     1     4    1
    10     1     5    1
    11    14     4    1
    12    16     5    1
    13     4    12    1
    14     4    13    1
    15     5    15    1
    16     5    17    1
